sol/case9Q.m
function mpc = case9Q
%CASE9Q

%% MATPOWER Case Format : Version 2
mpc.version = '2';

%%-----  Power Flow Data  -----%%
%% system MVA base
mpc.baseMVA = 100;

%% bus data
%	bus_i	type	Pd	Qd	Gs	Bs	area	Vm	Va	baseKV	zone	Vmax	Vmin	lam_P	lam_Q	mu_Vmax	mu_Vmin
mpc.bus = [
	1	3	0	0	0	0	1	1.06524792	0	345	1	1.1	0.9	24.7336	-0.1998	0.0000	0.0000;
	2	2	0	0	0	0	1	1.07954305	4.82637516	345	1	1.1	0.9	24.0602	-0.2914	0.0000	0.0000;
	3	2	0	0	0	0	1	1.09846079	2.85110038	345	1	1.1	0.9	24.1028	-0.4279	0.1989	0.0000;
	4	1	0	0	0	0	1	1.06662129	-2.60625933	345	1	1.1	0.9	24.7155	-0.1989	0.0000	0.0000;
	5	1	90	30	0	0	1	1.06577703	-4.25796528	345	1	1.1	0.9	24.9497	-0.2478	0.0000	0.0000;
	6	1	0	0	0	0	1	1.09999214	0.229923914	345	1	1.1	0.9	24.0637	-0.4257	62.1086	0.0000;
	7	1	100	35	0	0	1	1.07991585	-1.50233932	345	1	1.1	0.9	24.2176	-0.3183	0.0000	0.0000;
	8	1	0	0	0	0	1	1.08402943	0.707992669	345	1	1.1	0.9	24.0185	-0.2875	0.0000	0.0000;
	9	1	125	50	0	0	1	1.04689937	-4.90608381	345	1	1.1	0.9	24.9553	-0.1142	0.0000	0.0000;
];

%% generator data
%	bus	Pg	Qg	Qmax	Qmin	Vg	mBase	status	Pmax	Pmin	Pc1	Pc2	Qc1min	Qc1max	Qc2min	Qc2max	ramp_agc	ramp_10	ramp_30	ramp_q	apf	mu_Pmax	mu_Pmin	mu_Qmax	mu_Qmin
mpc.gen = [
	1	89.6981891	-0.499469029	300	-300	1.06524792	100	1	250	10	0	0	0	0	0	0	0	0	0	0	0	0.0000	0.0000	0.0000	0.0000;
	2	134.471741	-2.91423791	300	-300	1.07954305	100	1	300	10	0	0	0	0	0	0	0	0	0	0	0	0.0000	0.0000	0.0000	0.0000;
	3	94.2971685	-0.713203715	300	-300	1.09846079	100	1	270	10	0	0	0	0	0	0	0	0	0	0	0	0.0000	0.0000	0.0000	0.0000;
];

%% branch data
%	fbus	tbus	r	x	b	rateA	rateB	rateC	ratio	angle	status	angmin	angmax	Pf	Qf	Pt	Qt	mu_Sf	mu_St	mu_angmin	mu_angmax
mpc.branch = [
	1	4	0	0.0576	0	250	250	250	0	0	1	-360	360	89.6982	-0.4995	-89.6982	4.5836	0.0000	0.0000	0.0000	0.0000;
	4	5	0.017	0.092	0.158	250	250	250	0	0	1	-360	360	34.7062	-13.9086	-34.5226	-3.0589	0.0000	0.0000	0.0000	0.0000;
	5	6	0.039	0.17	0.358	150	150	150	0	0	1	-360	360	-55.4774	-26.9411	56.5492	-10.3783	0.0000	0.0000	0.0000	0.0000;
	3	6	0	0.0586	0	300	300	300	0	0	1	-360	360	94.2972	-0.7132	-94.2972	5.0319	0.0000	0.0000	0.0000	0.0000;
	6	7	0.0119	0.1008	0.209	150	150	150	0	0	1	-360	360	37.7480	5.3464	-37.5760	-28.7210	0.0000	0.0000	0.0000	0.0000;
	7	8	0.0085	0.072	0.149	250	250	250	0	0	1	-360	360	-62.4240	-6.2790	62.7084	-8.7546	0.0000	0.0000	0.0000	0.0000;
	8	2	0	0.0625	0	250	250	250	0	0	1	-360	360	-134.4717	12.6163	134.4717	-2.9142	0.0000	0.0000	0.0000	0.0000;
	8	9	0.032	0.161	0.306	250	250	250	0	0	1	-360	360	71.7633	-3.8617	-70.3067	-23.5575	0.0000	0.0000	0.0000	0.0000;
	9	4	0.01	0.085	0.176	250	250	250	0	0	1	-360	360	-54.6933	-26.4425	54.9920	9.3249	0.0000	0.0000	0.0000	0.0000;
];

%%-----  OPF Data  -----%%
%% generator cost data
%	1	startup	shutdown	n	x1	y1	...	xn	yn
%	2	startup	shutdown	n	c(n-1)	...	c0
mpc.gencost = [
	2	1500	0	3	0.11	5	150;
	2	2000	0	3	0.085	1.2	600;
	2	3000	0	3	0.1225	1	335;
	2	0	0	3	0.2	0	0;
	2	0	0	3	0.05	0	0;
	2	0	0	3	0.3	0	0;
];
